
 OpenBabel09162600503D

 43 44  0  0  1  0  0  0  0  0999 V2000
    1.7368    0.1449    0.8569 C   0  0  0  0  0  0  0  0  0  0  0  0
    3.0812   -0.3039    0.3517 C   0  0  0  0  0  0  0  0  0  0  0  0
    3.4867   -1.4410    0.5603 O   0  0  0  0  0  0  0  0  0  0  0  0
    3.7313    0.6910   -0.3552 N   0  0  0  0  0  0  0  0  0  0  0  0
    4.9682    0.5740   -0.9467 C   0  0  0  0  0  0  0  0  0  0  0  0
    5.5703   -0.4961   -1.0508 O   0  0  0  0  0  0  0  0  0  0  0  0
    5.4459    1.8142   -1.7517 C   0  0  3  0  0  0  0  0  0  0  0  0
    6.9745    1.6806   -1.8892 C   0  0  0  0  0  0  0  0  0  0  0  0
    7.4246    3.0075   -2.4594 C   0  0  0  0  0  0  0  0  0  0  0  0
    6.4266    4.0044   -1.9025 C   0  0  0  0  0  0  0  0  0  0  0  0
    5.3122    3.2335   -1.3543 N   0  0  0  0  0  0  0  0  0  0  0  0
    4.1364    3.8384   -0.9331 C   0  0  0  0  0  0  0  0  0  0  0  0
    3.1386    3.1687   -0.6491 O   0  0  0  0  0  0  0  0  0  0  0  0
    4.0810    5.4011   -0.9576 C   0  0  3  0  0  0  0  0  0  0  0  0
    3.3790    5.7859   -2.2089 N   0  0  0  0  0  0  0  0  0  0  0  0
    3.3443    6.0203    0.2408 C   0  0  0  0  0  0  0  0  0  0  0  0
    4.0483    5.8128    1.5624 C   0  0  0  0  0  0  0  0  0  0  0  0
    5.1046    6.6431    1.9642 C   0  0  0  0  0  0  0  0  0  0  0  0
    5.7285    6.4474    3.1982 C   0  0  0  0  0  0  0  0  0  0  0  0
    5.3093    5.4171    4.0420 C   0  0  0  0  0  0  0  0  0  0  0  0
    4.2558    4.5932    3.6529 C   0  0  0  0  0  0  0  0  0  0  0  0
    3.6312    4.7865    2.4211 C   0  0  0  0  0  0  0  0  0  0  0  0
    1.2910   -0.6453    1.4684 H   0  0  0  0  0  0  0  0  0  0  0  0
    1.0752    0.3539    0.0106 H   0  0  0  0  0  0  0  0  0  0  0  0
    1.8490    1.0408    1.4723 H   0  0  0  0  0  0  0  0  0  0  0  0
    3.2834    1.6032   -0.4029 H   0  0  0  0  0  0  0  0  0  0  0  0
    4.9757    1.7353   -2.7424 H   0  0  0  0  0  0  0  0  0  0  0  0
    7.2811    0.8369   -2.5151 H   0  0  0  0  0  0  0  0  0  0  0  0
    7.4264    1.5415   -0.8971 H   0  0  0  0  0  0  0  0  0  0  0  0
    7.3767    2.9863   -3.5538 H   0  0  0  0  0  0  0  0  0  0  0  0
    8.4513    3.2571   -2.1748 H   0  0  0  0  0  0  0  0  0  0  0  0
    6.0643    4.6526   -2.7084 H   0  0  0  0  0  0  0  0  0  0  0  0
    6.8626    4.6203   -1.1114 H   0  0  0  0  0  0  0  0  0  0  0  0
    5.0824    5.8341   -0.9882 H   0  0  0  0  0  0  0  0  0  0  0  0
    2.4478    5.3609   -2.1913 H   0  0  0  0  0  0  0  0  0  0  0  0
    3.8522    5.3614   -3.0057 H   0  0  0  0  0  0  0  0  0  0  0  0
    2.3148    5.6464    0.3103 H   0  0  0  0  0  0  0  0  0  0  0  0
    3.2506    7.1055    0.0848 H   0  0  0  0  0  0  0  0  0  0  0  0
    5.4369    7.4632    1.3300 H   0  0  0  0  0  0  0  0  0  0  0  0
    6.5388    7.1020    3.5077 H   0  0  0  0  0  0  0  0  0  0  0  0
    5.7904    5.2720    5.0038 H   0  0  0  0  0  0  0  0  0  0  0  0
    3.9214    3.7958    4.3126 H   0  0  0  0  0  0  0  0  0  0  0  0
    2.8048    4.1382    2.1390 H   0  0  0  0  0  0  0  0  0  0  0  0
  1  2  1  0  0  0  0
  1 23  1  0  0  0  0
  1 24  1  0  0  0  0
  1 25  1  0  0  0  0
  2  3  2  0  0  0  0
  2  4  1  0  0  0  0
  4  5  1  0  0  0  0
  4 26  1  0  0  0  0
  5  6  2  0  0  0  0
  5  7  1  0  0  0  0
  7  8  1  0  0  0  0
  7 11  1  0  0  0  0
  7 27  1  0  0  0  0
  8  9  1  0  0  0  0
  8 28  1  0  0  0  0
  8 29  1  0  0  0  0
  9 10  1  0  0  0  0
  9 30  1  0  0  0  0
  9 31  1  0  0  0  0
 10 11  1  0  0  0  0
 10 32  1  0  0  0  0
 10 33  1  0  0  0  0
 11 12  1  0  0  0  0
 12 13  2  0  0  0  0
 12 14  1  0  0  0  0
 14 15  1  0  0  0  0
 14 16  1  0  0  0  0
 14 34  1  0  0  0  0
 15 35  1  0  0  0  0
 15 36  1  0  0  0  0
 16 17  1  0  0  0  0
 16 37  1  0  0  0  0
 16 38  1  0  0  0  0
 17 18  1  0  0  0  0
 17 22  2  0  0  0  0
 18 19  2  0  0  0  0
 18 39  1  0  0  0  0
 19 20  1  0  0  0  0
 19 40  1  0  0  0  0
 20 21  2  0  0  0  0
 20 41  1  0  0  0  0
 21 22  1  0  0  0  0
 21 42  1  0  0  0  0
 22 43  1  0  0  0  0
M  END
