
 OpenBabel09102615313D

 52 56  0  0  0  0  0  0  0  0999 V2000
    2.0079    1.1690   -0.7220 O   0  0  0  0  0  0  0  0  0  0  0  0
    1.4147    0.8446    0.3074 C   0  0  0  0  0  0  0  0  0  0  0  0
    2.1081    0.7675    1.6409 C   0  0  0  0  0  0  0  0  0  0  0  0
    1.1536    1.1526    2.7580 C   0  0  0  0  0  0  0  0  0  0  0  0
   -0.0759    0.2283    2.7776 C   0  0  0  0  0  0  0  0  0  0  0  0
   -0.7096    0.1218    1.4310 C   0  0  0  0  0  0  0  0  0  0  0  0
   -2.0498   -0.3465    1.3370 C   0  0  0  0  0  0  0  0  0  0  0  0
   -2.6888   -0.4819    0.1004 C   0  0  0  0  0  0  0  0  0  0  0  0
   -4.1653   -0.8781    0.0311 C   0  0  0  0  0  0  0  0  0  0  0  0
   -4.9853    0.4058    0.1112 C   0  0  0  0  0  0  0  0  0  0  0  0
   -6.4865    0.5285    0.0797 C   0  0  0  0  0  0  0  0  0  0  0  0
   -7.5029   -0.3685    0.4456 C   0  0  0  0  0  0  0  0  0  0  0  0
   -8.8244    0.1230    0.7046 C   0  0  0  0  0  0  0  0  0  0  0  0
   -9.1213    1.4526    0.4123 C   0  0  0  0  0  0  0  0  0  0  0  0
   -8.2506    2.0433   -0.4570 C   0  0  0  0  0  0  0  0  0  0  0  0
   -6.9032    1.7959   -0.3335 C   0  0  0  0  0  0  0  0  0  0  0  0
   -8.8346    2.4001   -1.8004 C   0  0  0  0  0  0  0  0  0  0  0  0
   -8.6716    3.7976   -2.0322 N   0  0  0  0  0  0  0  0  0  0  0  0
   -9.7028    4.4835   -1.4261 C   0  0  0  0  0  0  0  0  0  0  0  0
  -10.7381    4.7571   -2.0149 O   0  0  0  0  0  0  0  0  0  0  0  0
   -9.4891    4.6953   -0.0207 C   0  0  0  0  0  0  0  0  0  0  0  0
   -8.8031    5.7533    0.5468 C   0  0  0  0  0  0  0  0  0  0  0  0
   -9.0553    5.7081    1.9282 C   0  0  0  0  0  0  0  0  0  0  0  0
   -9.8572    4.6061    2.1632 C   0  0  0  0  0  0  0  0  0  0  0  0
   -9.9268    3.8431    1.0038 N   0  0  0  0  0  0  0  0  0  0  0  0
  -10.1480    2.4045    0.9976 C   0  0  0  0  0  0  0  0  0  0  0  0
  -11.0700    1.9723    1.6808 O   0  0  0  0  0  0  0  0  0  0  0  0
   -1.9857   -0.1205   -1.0686 C   0  0  0  0  0  0  0  0  0  0  0  0
   -0.6570    0.3243   -0.9930 C   0  0  0  0  0  0  0  0  0  0  0  0
   -0.0151    0.4311    0.2444 C   0  0  0  0  0  0  0  0  0  0  0  0
    2.9634    1.4520    1.6387 H   0  0  0  0  0  0  0  0  0  0  0  0
    2.4901   -0.2525    1.7743 H   0  0  0  0  0  0  0  0  0  0  0  0
    0.8453    2.1954    2.6324 H   0  0  0  0  0  0  0  0  0  0  0  0
    1.6748    1.0929    3.7319 H   0  0  0  0  0  0  0  0  0  0  0  0
   -0.7842    0.6419    3.5033 H   0  0  0  0  0  0  0  0  0  0  0  0
    0.2302   -0.7686    3.1183 H   0  0  0  0  0  0  0  0  0  0  0  0
   -2.5897   -0.5773    2.2526 H   0  0  0  0  0  0  0  0  0  0  0  0
   -4.4016   -1.5597    0.8550 H   0  0  0  0  0  0  0  0  0  0  0  0
   -4.3607   -1.4195   -0.9020 H   0  0  0  0  0  0  0  0  0  0  0  0
   -4.6238    1.0172   -0.7307 H   0  0  0  0  0  0  0  0  0  0  0  0
   -4.6792    0.9417    1.0206 H   0  0  0  0  0  0  0  0  0  0  0  0
   -7.2874   -1.4236    0.5980 H   0  0  0  0  0  0  0  0  0  0  0  0
   -9.5836   -0.5351    1.1232 H   0  0  0  0  0  0  0  0  0  0  0  0
   -6.1842    2.5430   -0.6610 H   0  0  0  0  0  0  0  0  0  0  0  0
   -9.9083    2.1550   -1.8010 H   0  0  0  0  0  0  0  0  0  0  0  0
   -8.3730    1.7959   -2.5812 H   0  0  0  0  0  0  0  0  0  0  0  0
   -7.7549    4.1008   -1.7321 H   0  0  0  0  0  0  0  0  0  0  0  0
   -8.2475    6.5085   -0.0019 H   0  0  0  0  0  0  0  0  0  0  0  0
   -8.7122    6.4236    2.6637 H   0  0  0  0  0  0  0  0  0  0  0  0
  -10.2774    4.2291    3.0859 H   0  0  0  0  0  0  0  0  0  0  0  0
   -2.4616   -0.1629   -2.0443 H   0  0  0  0  0  0  0  0  0  0  0  0
   -0.1299    0.5981   -1.9048 H   0  0  0  0  0  0  0  0  0  0  0  0
  1  2  2  0  0  0  0
  2  3  1  0  0  0  0
  2 30  1  0  0  0  0
  3  4  1  0  0  0  0
  3 31  1  0  0  0  0
  3 32  1  0  0  0  0
  4  5  1  0  0  0  0
  4 33  1  0  0  0  0
  4 34  1  0  0  0  0
  5  6  1  0  0  0  0
  5 35  1  0  0  0  0
  5 36  1  0  0  0  0
  6  7  1  0  0  0  0
  6 30  2  0  0  0  0
  7  8  2  0  0  0  0
  7 37  1  0  0  0  0
  8  9  1  0  0  0  0
  8 28  1  0  0  0  0
  9 10  1  0  0  0  0
  9 38  1  0  0  0  0
  9 39  1  0  0  0  0
 10 11  1  0  0  0  0
 10 40  1  0  0  0  0
 10 41  1  0  0  0  0
 11 12  1  0  0  0  0
 11 16  2  0  0  0  0
 12 13  2  0  0  0  0
 12 42  1  0  0  0  0
 13 14  1  0  0  0  0
 13 43  1  0  0  0  0
 14 15  2  0  0  0  0
 14 26  1  0  0  0  0
 15 16  1  0  0  0  0
 15 17  1  0  0  0  0
 16 44  1  0  0  0  0
 17 18  1  0  0  0  0
 17 45  1  0  0  0  0
 17 46  1  0  0  0  0
 18 19  1  0  0  0  0
 18 47  1  0  0  0  0
 19 20  2  0  0  0  0
 19 21  1  0  0  0  0
 21 22  2  0  0  0  0
 21 25  1  0  0  0  0
 22 23  1  0  0  0  0
 22 48  1  0  0  0  0
 23 24  2  0  0  0  0
 23 49  1  0  0  0  0
 24 25  1  0  0  0  0
 24 50  1  0  0  0  0
 25 26  1  0  0  0  0
 26 27  2  0  0  0  0
 28 29  2  0  0  0  0
 28 51  1  0  0  0  0
 29 30  1  0  0  0  0
 29 52  1  0  0  0  0
M  END
