
 OpenBabel09102615323D

 68 73  0  0  1  0  0  0  0  0999 V2000
    2.5515    1.2337    1.8561 C   0  0  0  0  0  0  0  0  0  0  0  0
    2.2413   -0.1965    1.9433 N   0  0  0  0  0  0  0  0  0  0  0  0
    0.7928   -0.3888    1.8186 C   0  0  0  0  0  0  0  0  0  0  0  0
    2.9296   -0.9708    0.8964 C   0  0  0  0  0  0  0  0  0  0  0  0
    4.4399   -0.9438    1.0046 C   0  0  0  0  0  0  0  0  0  0  0  0
    5.1071   -1.3371    2.1613 C   0  0  0  0  0  0  0  0  0  0  0  0
    6.5123   -1.3532    2.2139 C   0  0  0  0  0  0  0  0  0  0  0  0
    7.2748   -0.9437    1.0906 C   0  0  0  0  0  0  0  0  0  0  0  0
    6.6207   -0.4990   -0.0855 C   0  0  0  0  0  0  0  0  0  0  0  0
    7.2747   -0.1803   -1.3749 C   0  0  0  0  0  0  0  0  0  0  0  0
    8.1781   -1.1014   -1.7655 N   0  0  0  0  0  0  0  0  0  0  0  0
    8.7306   -0.9745   -2.9830 C   0  0  0  0  0  0  0  0  0  0  0  0
    8.3180   -0.0612   -3.9520 C   0  0  0  0  0  0  0  0  0  0  0  0
    9.0238   -0.1406   -5.2952 C   0  0  3  0  0  0  0  0  0  0  0  0
    9.7404    1.1622   -5.6895 C   0  0  0  0  0  0  0  0  0  0  0  0
   10.5034    0.9937   -7.0031 C   0  0  0  0  0  0  0  0  0  0  0  0
    9.5854    0.5300   -8.1235 C   0  0  0  0  0  0  0  0  0  0  0  0
    8.8640   -0.7354   -7.7222 C   0  0  0  0  0  0  0  0  0  0  0  0
    8.7653   -1.6906   -8.4909 O   0  0  0  0  0  0  0  0  0  0  0  0
    8.1313   -0.7060   -6.4017 C   0  0  0  0  0  0  0  0  0  0  0  0
    7.2990    0.8365   -3.5726 C   0  0  0  0  0  0  0  0  0  0  0  0
    6.8849    0.8711   -2.2189 C   0  0  0  0  0  0  0  0  0  0  0  0
    6.0824    2.0482   -1.6949 C   0  0  0  0  0  0  0  0  0  0  0  0
    5.7464    3.0278   -2.6852 O   0  0  0  0  0  0  0  0  0  0  0  0
    5.3450    2.4015   -3.8968 C   0  0  0  0  0  0  0  0  0  0  0  0
    6.5741    1.7544   -4.5343 C   0  0  0  0  0  0  0  0  0  0  0  0
    5.2061   -0.5652   -0.0995 C   0  0  0  0  0  0  0  0  0  0  0  0
    8.7006   -1.0876    1.1469 N   0  0  0  0  0  0  0  0  0  0  0  0
    9.6265   -0.1886    0.6328 C   0  0  0  0  0  0  0  0  0  0  0  0
   10.8782   -0.7555    0.6750 C   0  0  0  0  0  0  0  0  0  0  0  0
   10.7385   -1.9996    1.3151 C   0  0  0  0  0  0  0  0  0  0  0  0
    9.4123   -2.1514    1.6965 C   0  0  0  0  0  0  0  0  0  0  0  0
    8.8846   -3.2942    2.4064 C   0  0  0  0  0  0  0  0  0  0  0  0
    9.3893   -4.4139    2.3665 O   0  0  0  0  0  0  0  0  0  0  0  0
    7.8009   -3.1027    3.2163 N   0  0  0  0  0  0  0  0  0  0  0  0
    7.1803   -1.8371    3.4688 C   0  0  0  0  0  0  0  0  0  0  0  0
    2.0393    1.7815    2.6553 H   0  0  0  0  0  0  0  0  0  0  0  0
    2.2505    1.6664    0.8950 H   0  0  0  0  0  0  0  0  0  0  0  0
    3.6206    1.4228    1.9993 H   0  0  0  0  0  0  0  0  0  0  0  0
    0.2637    0.1413    2.6180 H   0  0  0  0  0  0  0  0  0  0  0  0
    0.5326   -1.4484    1.9178 H   0  0  0  0  0  0  0  0  0  0  0  0
    0.4092   -0.0299    0.8557 H   0  0  0  0  0  0  0  0  0  0  0  0
    2.6194   -0.6136   -0.0960 H   0  0  0  0  0  0  0  0  0  0  0  0
    2.6289   -2.0256    0.9509 H   0  0  0  0  0  0  0  0  0  0  0  0
    4.5208   -1.6597    3.0210 H   0  0  0  0  0  0  0  0  0  0  0  0
    9.5369   -1.6816   -3.1665 H   0  0  0  0  0  0  0  0  0  0  0  0
    9.8409   -0.8718   -5.1850 H   0  0  0  0  0  0  0  0  0  0  0  0
   10.4465    1.4520   -4.9003 H   0  0  0  0  0  0  0  0  0  0  0  0
    9.0379    1.9907   -5.8008 H   0  0  0  0  0  0  0  0  0  0  0  0
   11.3117    0.2648   -6.8632 H   0  0  0  0  0  0  0  0  0  0  0  0
   10.9729    1.9443   -7.2800 H   0  0  0  0  0  0  0  0  0  0  0  0
   10.1698    0.3368   -9.0282 H   0  0  0  0  0  0  0  0  0  0  0  0
    8.8344    1.2927   -8.3563 H   0  0  0  0  0  0  0  0  0  0  0  0
    7.8276   -1.7285   -6.1447 H   0  0  0  0  0  0  0  0  0  0  0  0
    7.2233   -0.1236   -6.5573 H   0  0  0  0  0  0  0  0  0  0  0  0
    5.1433    1.7477   -1.2287 H   0  0  0  0  0  0  0  0  0  0  0  0
    6.6823    2.5691   -0.9400 H   0  0  0  0  0  0  0  0  0  0  0  0
    4.9367    3.1683   -4.5631 H   0  0  0  0  0  0  0  0  0  0  0  0
    4.5423    1.6776   -3.7000 H   0  0  0  0  0  0  0  0  0  0  0  0
    7.2512    2.5441   -4.8636 H   0  0  0  0  0  0  0  0  0  0  0  0
    6.2147    1.1916   -5.3977 H   0  0  0  0  0  0  0  0  0  0  0  0
    4.6763   -0.3598   -1.0308 H   0  0  0  0  0  0  0  0  0  0  0  0
    9.3097    0.7642    0.2319 H   0  0  0  0  0  0  0  0  0  0  0  0
   11.7873   -0.3284    0.2734 H   0  0  0  0  0  0  0  0  0  0  0  0
   11.5197   -2.7264    1.5097 H   0  0  0  0  0  0  0  0  0  0  0  0
    7.4758   -3.9366    3.6877 H   0  0  0  0  0  0  0  0  0  0  0  0
    7.9287   -1.1151    3.8159 H   0  0  0  0  0  0  0  0  0  0  0  0
    6.4612   -1.9745    4.2831 H   0  0  0  0  0  0  0  0  0  0  0  0
  1  2  1  0  0  0  0
  1 37  1  0  0  0  0
  1 38  1  0  0  0  0
  1 39  1  0  0  0  0
  2  3  1  0  0  0  0
  2  4  1  0  0  0  0
  3 40  1  0  0  0  0
  3 41  1  0  0  0  0
  3 42  1  0  0  0  0
  4  5  1  0  0  0  0
  4 43  1  0  0  0  0
  4 44  1  0  0  0  0
  5  6  1  0  0  0  0
  5 27  2  0  0  0  0
  6  7  2  0  0  0  0
  6 45  1  0  0  0  0
  7  8  1  0  0  0  0
  7 36  1  0  0  0  0
  8  9  2  0  0  0  0
  8 28  1  0  0  0  0
  9 10  1  0  0  0  0
  9 27  1  0  0  0  0
 10 11  1  0  0  0  0
 10 22  2  0  0  0  0
 11 12  2  0  0  0  0
 12 13  1  0  0  0  0
 12 46  1  0  0  0  0
 13 14  1  0  0  0  0
 13 21  2  0  0  0  0
 14 15  1  0  0  0  0
 14 20  1  0  0  0  0
 14 47  1  0  0  0  0
 15 16  1  0  0  0  0
 15 48  1  0  0  0  0
 15 49  1  0  0  0  0
 16 17  1  0  0  0  0
 16 50  1  0  0  0  0
 16 51  1  0  0  0  0
 17 18  1  0  0  0  0
 17 52  1  0  0  0  0
 17 53  1  0  0  0  0
 18 19  2  0  0  0  0
 18 20  1  0  0  0  0
 20 54  1  0  0  0  0
 20 55  1  0  0  0  0
 21 22  1  0  0  0  0
 21 26  1  0  0  0  0
 22 23  1  0  0  0  0
 23 24  1  0  0  0  0
 23 56  1  0  0  0  0
 23 57  1  0  0  0  0
 24 25  1  0  0  0  0
 25 26  1  0  0  0  0
 25 58  1  0  0  0  0
 25 59  1  0  0  0  0
 26 60  1  0  0  0  0
 26 61  1  0  0  0  0
 27 62  1  0  0  0  0
 28 29  1  0  0  0  0
 28 32  1  0  0  0  0
 29 30  2  0  0  0  0
 29 63  1  0  0  0  0
 30 31  1  0  0  0  0
 30 64  1  0  0  0  0
 31 32  2  0  0  0  0
 31 65  1  0  0  0  0
 32 33  1  0  0  0  0
 33 34  2  0  0  0  0
 33 35  1  0  0  0  0
 35 36  1  0  0  0  0
 35 66  1  0  0  0  0
 36 67  1  0  0  0  0
 36 68  1  0  0  0  0
M  END
