
 OpenBabel09162600503D

 31 33  0  0  0  0  0  0  0  0999 V2000
    1.5735   -0.2025    1.2109 C   0  0  0  0  0  0  0  0  0  0  0  0
    2.7466   -0.1511    0.4080 O   0  0  0  0  0  0  0  0  0  0  0  0
    3.3111    1.1306    0.5180 N   0  0  0  0  0  0  0  0  0  0  0  0
    4.3706    1.1749   -0.2248 C   0  0  0  0  0  0  0  0  0  0  0  0
    5.1534    2.3908   -0.3079 C   0  0  0  0  0  0  0  0  0  0  0  0
    4.8885    3.5818    0.3482 C   0  0  0  0  0  0  0  0  0  0  0  0
    5.8443    4.4863   -0.0139 N   0  0  0  0  0  0  0  0  0  0  0  0
    6.7763    3.8969   -0.8345 C   0  0  0  0  0  0  0  0  0  0  0  0
    7.9459    4.4263   -1.4047 C   0  0  0  0  0  0  0  0  0  0  0  0
    8.6070    3.6638   -2.3717 C   0  0  0  0  0  0  0  0  0  0  0  0
    8.1528    2.3866   -2.6969 C   0  0  0  0  0  0  0  0  0  0  0  0
    7.0353    1.8369   -2.0531 C   0  0  0  0  0  0  0  0  0  0  0  0
    6.3221    2.6076   -1.1083 C   0  0  0  0  0  0  0  0  0  0  0  0
    8.4552    5.7591   -0.9981 C   0  0  0  0  0  0  0  0  0  0  0  0
    9.0194    6.4904   -1.8057 O   0  0  0  0  0  0  0  0  0  0  0  0
    8.3857    6.0474    0.3545 N   0  0  0  0  0  0  0  0  0  0  0  0
    7.1080    6.3564    1.0017 C   0  0  0  0  0  0  0  0  0  0  0  0
    5.8401    5.9101    0.2770 C   0  0  0  0  0  0  0  0  0  0  0  0
    1.1883   -1.2256    1.1902 H   0  0  0  0  0  0  0  0  0  0  0  0
    0.8098    0.4697    0.8089 H   0  0  0  0  0  0  0  0  0  0  0  0
    1.8062    0.0641    2.2465 H   0  0  0  0  0  0  0  0  0  0  0  0
    4.7079    0.3044   -0.8130 H   0  0  0  0  0  0  0  0  0  0  0  0
    4.0707    3.8474    1.0069 H   0  0  0  0  0  0  0  0  0  0  0  0
    9.4843    4.0714   -2.8713 H   0  0  0  0  0  0  0  0  0  0  0  0
    8.6709    1.8086   -3.4591 H   0  0  0  0  0  0  0  0  0  0  0  0
    6.7025    0.8359   -2.3153 H   0  0  0  0  0  0  0  0  0  0  0  0
    8.8793    5.3394    0.8852 H   0  0  0  0  0  0  0  0  0  0  0  0
    7.0831    7.4404    1.1531 H   0  0  0  0  0  0  0  0  0  0  0  0
    7.1476    5.8910    1.9941 H   0  0  0  0  0  0  0  0  0  0  0  0
    5.7331    6.4281   -0.6846 H   0  0  0  0  0  0  0  0  0  0  0  0
    4.9538    6.1381    0.8773 H   0  0  0  0  0  0  0  0  0  0  0  0
  1  2  1  0  0  0  0
  1 19  1  0  0  0  0
  1 20  1  0  0  0  0
  1 21  1  0  0  0  0
  2  3  1  0  0  0  0
  3  4  2  3  0  0  0
  4  5  1  0  0  0  0
  4 22  1  0  0  0  0
  5  6  2  0  0  0  0
  5 13  1  0  0  0  0
  6  7  1  0  0  0  0
  6 23  1  0  0  0  0
  7  8  1  0  0  0  0
  7 18  1  0  0  0  0
  8  9  1  0  0  0  0
  8 13  2  0  0  0  0
  9 10  2  0  0  0  0
  9 14  1  0  0  0  0
 10 11  1  0  0  0  0
 10 24  1  0  0  0  0
 11 12  2  0  0  0  0
 11 25  1  0  0  0  0
 12 13  1  0  0  0  0
 12 26  1  0  0  0  0
 14 15  2  0  0  0  0
 14 16  1  0  0  0  0
 16 17  1  0  0  0  0
 16 27  1  0  0  0  0
 17 18  1  0  0  0  0
 17 28  1  0  0  0  0
 17 29  1  0  0  0  0
 18 30  1  0  0  0  0
 18 31  1  0  0  0  0
M  END
