
 OpenBabel09152623153D

 39 41  0  0  1  0  0  0  0  0999 V2000
    0.8442   -0.2693   -0.0384 C   0  0  0  0  0  0  0  0  0  0  0  0
    2.3590   -0.0897   -0.0039 C   0  0  3  0  0  0  0  0  0  0  0  0
    3.0180   -0.9929   -0.9115 N   0  0  0  0  0  0  0  0  0  0  0  0
    4.3510   -1.2969   -0.8616 C   0  0  0  0  0  0  0  0  0  0  0  0
    4.8027   -2.1013   -1.6747 O   0  0  0  0  0  0  0  0  0  0  0  0
    5.1476   -0.6855    0.1811 C   0  0  0  0  0  0  0  0  0  0  0  0
    6.2120   -1.2912    0.8337 C   0  0  0  0  0  0  0  0  0  0  0  0
    6.7664   -0.3653    1.7370 C   0  0  0  0  0  0  0  0  0  0  0  0
    6.0728    0.8114    1.5786 C   0  0  0  0  0  0  0  0  0  0  0  0
    5.0743    0.6299    0.6384 N   0  0  0  0  0  0  0  0  0  0  0  0
    4.1773    1.6456    0.1819 C   0  0  0  0  0  0  0  0  0  0  0  0
    4.6195    2.9750    0.1184 C   0  0  0  0  0  0  0  0  0  0  0  0
    3.8219    3.9482   -0.4911 C   0  0  0  0  0  0  0  0  0  0  0  0
    2.5811    3.6107   -1.0409 C   0  0  0  0  0  0  0  0  0  0  0  0
    1.7770    4.6368   -1.8168 C   0  0  0  0  0  0  0  0  0  0  0  0
    0.3919    4.8071   -1.3435 N   0  0  0  0  0  0  0  0  0  0  0  0
    0.3473    5.3478    0.0177 C   0  0  0  0  0  0  0  0  0  0  0  0
   -0.3285    5.7074   -2.2497 C   0  0  0  0  0  0  0  0  0  0  0  0
    2.1124    2.2932   -0.8996 C   0  0  0  0  0  0  0  0  0  0  0  0
    2.8810    1.3066   -0.2566 C   0  0  0  0  0  0  0  0  0  0  0  0
    0.5777   -1.2841    0.2773 H   0  0  0  0  0  0  0  0  0  0  0  0
    0.4346   -0.1240   -1.0433 H   0  0  0  0  0  0  0  0  0  0  0  0
    0.3528    0.4315    0.6464 H   0  0  0  0  0  0  0  0  0  0  0  0
    2.6520   -0.3708    1.0182 H   0  0  0  0  0  0  0  0  0  0  0  0
    2.5282   -1.3717   -1.7107 H   0  0  0  0  0  0  0  0  0  0  0  0
    6.5358   -2.3114    0.6640 H   0  0  0  0  0  0  0  0  0  0  0  0
    7.5889   -0.5335    2.4200 H   0  0  0  0  0  0  0  0  0  0  0  0
    6.1859    1.7542    2.0958 H   0  0  0  0  0  0  0  0  0  0  0  0
    5.6070    3.2678    0.4656 H   0  0  0  0  0  0  0  0  0  0  0  0
    4.1976    4.9660   -0.5705 H   0  0  0  0  0  0  0  0  0  0  0  0
    1.7634    4.2855   -2.8582 H   0  0  0  0  0  0  0  0  0  0  0  0
    2.3028    5.6008   -1.8243 H   0  0  0  0  0  0  0  0  0  0  0  0
    0.8326    4.6754    0.7322 H   0  0  0  0  0  0  0  0  0  0  0  0
   -0.6919    5.4449    0.3528 H   0  0  0  0  0  0  0  0  0  0  0  0
    0.8249    6.3316    0.0886 H   0  0  0  0  0  0  0  0  0  0  0  0
   -0.3315    5.3111   -3.2714 H   0  0  0  0  0  0  0  0  0  0  0  0
    0.1136    6.7106   -2.2724 H   0  0  0  0  0  0  0  0  0  0  0  0
   -1.3773    5.8008   -1.9470 H   0  0  0  0  0  0  0  0  0  0  0  0
    1.1338    2.0542   -1.3092 H   0  0  0  0  0  0  0  0  0  0  0  0
  1  2  1  0  0  0  0
  1 21  1  0  0  0  0
  1 22  1  0  0  0  0
  1 23  1  0  0  0  0
  2  3  1  0  0  0  0
  2 20  1  0  0  0  0
  2 24  1  0  0  0  0
  3  4  1  0  0  0  0
  3 25  1  0  0  0  0
  4  5  2  0  0  0  0
  4  6  1  0  0  0  0
  6  7  2  0  0  0  0
  6 10  1  0  0  0  0
  7  8  1  0  0  0  0
  7 26  1  0  0  0  0
  8  9  2  0  0  0  0
  8 27  1  0  0  0  0
  9 10  1  0  0  0  0
  9 28  1  0  0  0  0
 10 11  1  0  0  0  0
 11 12  1  0  0  0  0
 11 20  2  0  0  0  0
 12 13  2  0  0  0  0
 12 29  1  0  0  0  0
 13 14  1  0  0  0  0
 13 30  1  0  0  0  0
 14 15  1  0  0  0  0
 14 19  2  0  0  0  0
 15 16  1  0  0  0  0
 15 31  1  0  0  0  0
 15 32  1  0  0  0  0
 16 17  1  0  0  0  0
 16 18  1  0  0  0  0
 17 33  1  0  0  0  0
 17 34  1  0  0  0  0
 17 35  1  0  0  0  0
 18 36  1  0  0  0  0
 18 37  1  0  0  0  0
 18 38  1  0  0  0  0
 19 20  1  0  0  0  0
 19 39  1  0  0  0  0
M  END
