
 OpenBabel09102615313D

 51 55  0  0  0  0  0  0  0  0999 V2000
    0.6822   -0.9827   -0.7976 O   0  0  0  0  0  0  0  0  0  0  0  0
    1.7777   -0.4320   -0.7093 C   0  0  0  0  0  0  0  0  0  0  0  0
    1.9536    0.5157    0.2600 N   0  0  0  0  0  0  0  0  0  0  0  0
    3.1750    1.2207    0.4946 C   0  0  0  0  0  0  0  0  0  0  0  0
    3.4774    2.0924   -0.6862 C   0  0  0  0  0  0  0  0  0  0  0  0
    3.3486    3.4833   -0.5828 C   0  0  0  0  0  0  0  0  0  0  0  0
    3.6128    4.3248   -1.6779 C   0  0  0  0  0  0  0  0  0  0  0  0
    3.3783    5.8055   -1.5094 C   0  0  0  0  0  0  0  0  0  0  0  0
    2.9738    6.5957   -2.7685 C   0  0  0  0  0  0  0  0  0  0  0  0
    2.4720    7.9523   -2.3403 C   0  0  0  0  0  0  0  0  0  0  0  0
    3.2804    9.0838   -2.3124 C   0  0  0  0  0  0  0  0  0  0  0  0
    2.8196   10.2521   -1.6969 C   0  0  0  0  0  0  0  0  0  0  0  0
    1.5521   10.3011   -1.0850 C   0  0  0  0  0  0  0  0  0  0  0  0
    0.7158    9.1886   -1.1720 C   0  0  0  0  0  0  0  0  0  0  0  0
    1.1711    8.0350   -1.8181 C   0  0  0  0  0  0  0  0  0  0  0  0
   -0.6737    9.1908   -0.6222 C   0  0  0  0  0  0  0  0  0  0  0  0
   -0.9320   10.1741    0.4988 C   0  0  0  0  0  0  0  0  0  0  0  0
   -0.1498   11.4812    0.4711 C   0  0  0  0  0  0  0  0  0  0  0  0
    1.1231   11.5547   -0.3798 C   0  0  0  0  0  0  0  0  0  0  0  0
    4.0991    3.7580   -2.8566 C   0  0  0  0  0  0  0  0  0  0  0  0
    4.2387    2.3716   -2.9756 C   0  0  0  0  0  0  0  0  0  0  0  0
    3.8734    1.5361   -1.9119 C   0  0  0  0  0  0  0  0  0  0  0  0
    3.8325    0.1249   -2.1029 N   0  0  0  0  0  0  0  0  0  0  0  0
    4.6708   -0.5908   -2.9375 C   0  0  0  0  0  0  0  0  0  0  0  0
    4.2995   -1.9146   -2.9236 C   0  0  0  0  0  0  0  0  0  0  0  0
    3.1713   -2.0141   -2.0879 C   0  0  0  0  0  0  0  0  0  0  0  0
    2.9043   -0.7593   -1.5576 C   0  0  0  0  0  0  0  0  0  0  0  0
    1.1218    0.7478    0.7847 H   0  0  0  0  0  0  0  0  0  0  0  0
    3.9928    0.5050    0.6657 H   0  0  0  0  0  0  0  0  0  0  0  0
    3.0658    1.8010    1.4176 H   0  0  0  0  0  0  0  0  0  0  0  0
    3.0096    3.9190    0.3570 H   0  0  0  0  0  0  0  0  0  0  0  0
    4.2743    6.2525   -1.0642 H   0  0  0  0  0  0  0  0  0  0  0  0
    2.5764    5.9177   -0.7636 H   0  0  0  0  0  0  0  0  0  0  0  0
    2.1778    6.0711   -3.3180 H   0  0  0  0  0  0  0  0  0  0  0  0
    3.8152    6.6964   -3.4629 H   0  0  0  0  0  0  0  0  0  0  0  0
    4.2825    9.0542   -2.7300 H   0  0  0  0  0  0  0  0  0  0  0  0
    3.4744   11.1229   -1.6689 H   0  0  0  0  0  0  0  0  0  0  0  0
    0.5186    7.1600   -1.8665 H   0  0  0  0  0  0  0  0  0  0  0  0
   -1.3713    9.3581   -1.4524 H   0  0  0  0  0  0  0  0  0  0  0  0
   -0.8932    8.1841   -0.2299 H   0  0  0  0  0  0  0  0  0  0  0  0
   -0.7334    9.6727    1.4546 H   0  0  0  0  0  0  0  0  0  0  0  0
   -2.0069   10.3995    0.5164 H   0  0  0  0  0  0  0  0  0  0  0  0
    0.1141   11.7288    1.5090 H   0  0  0  0  0  0  0  0  0  0  0  0
   -0.8196   12.2917    0.1611 H   0  0  0  0  0  0  0  0  0  0  0  0
    1.9452   11.8828    0.2771 H   0  0  0  0  0  0  0  0  0  0  0  0
    0.9906   12.3445   -1.1315 H   0  0  0  0  0  0  0  0  0  0  0  0
    4.3409    4.3805   -3.7144 H   0  0  0  0  0  0  0  0  0  0  0  0
    4.5547    1.9684   -3.9341 H   0  0  0  0  0  0  0  0  0  0  0  0
    5.4912   -0.1073   -3.4502 H   0  0  0  0  0  0  0  0  0  0  0  0
    4.7783   -2.7164   -3.4708 H   0  0  0  0  0  0  0  0  0  0  0  0
    2.5903   -2.9049   -1.8793 H   0  0  0  0  0  0  0  0  0  0  0  0
  1  2  2  0  0  0  0
  2  3  1  0  0  0  0
  2 27  1  0  0  0  0
  3  4  1  0  0  0  0
  3 28  1  0  0  0  0
  4  5  1  0  0  0  0
  4 29  1  0  0  0  0
  4 30  1  0  0  0  0
  5  6  1  0  0  0  0
  5 22  2  0  0  0  0
  6  7  2  0  0  0  0
  6 31  1  0  0  0  0
  7  8  1  0  0  0  0
  7 20  1  0  0  0  0
  8  9  1  0  0  0  0
  8 32  1  0  0  0  0
  8 33  1  0  0  0  0
  9 10  1  0  0  0  0
  9 34  1  0  0  0  0
  9 35  1  0  0  0  0
 10 11  1  0  0  0  0
 10 15  2  0  0  0  0
 11 12  2  0  0  0  0
 11 36  1  0  0  0  0
 12 13  1  0  0  0  0
 12 37  1  0  0  0  0
 13 14  2  0  0  0  0
 13 19  1  0  0  0  0
 14 15  1  0  0  0  0
 14 16  1  0  0  0  0
 15 38  1  0  0  0  0
 16 17  1  0  0  0  0
 16 39  1  0  0  0  0
 16 40  1  0  0  0  0
 17 18  1  0  0  0  0
 17 41  1  0  0  0  0
 17 42  1  0  0  0  0
 18 19  1  0  0  0  0
 18 43  1  0  0  0  0
 18 44  1  0  0  0  0
 19 45  1  0  0  0  0
 19 46  1  0  0  0  0
 20 21  2  0  0  0  0
 20 47  1  0  0  0  0
 21 22  1  0  0  0  0
 21 48  1  0  0  0  0
 22 23  1  0  0  0  0
 23 24  1  0  0  0  0
 23 27  1  0  0  0  0
 24 25  2  0  0  0  0
 24 49  1  0  0  0  0
 25 26  1  0  0  0  0
 25 50  1  0  0  0  0
 26 27  2  0  0  0  0
 26 51  1  0  0  0  0
M  END
