
 OpenBabel09162600503D

 27 29  0  0  0  0  0  0  0  0999 V2000
    1.3458    0.7771   -0.1634 N   0  0  0  0  0  0  0  0  0  0  0  0
    2.3341   -0.0350    0.0130 C   0  0  0  0  0  0  0  0  0  0  0  0
    3.0784   -0.5241   -1.1251 C   0  0  0  0  0  0  0  0  0  0  0  0
    2.8253   -0.2035   -2.4487 C   0  0  0  0  0  0  0  0  0  0  0  0
    3.7134   -0.8825   -3.2269 N   0  0  0  0  0  0  0  0  0  0  0  0
    4.6181   -1.5579   -2.4433 C   0  0  0  0  0  0  0  0  0  0  0  0
    5.7403   -2.3154   -2.8095 C   0  0  0  0  0  0  0  0  0  0  0  0
    6.3698   -3.0722   -1.8158 C   0  0  0  0  0  0  0  0  0  0  0  0
    5.9338   -3.0063   -0.4931 C   0  0  0  0  0  0  0  0  0  0  0  0
    4.8673   -2.1711   -0.1285 C   0  0  0  0  0  0  0  0  0  0  0  0
    4.1853   -1.4349   -1.1218 C   0  0  0  0  0  0  0  0  0  0  0  0
    6.2373   -2.3233   -4.2083 C   0  0  0  0  0  0  0  0  0  0  0  0
    6.7672   -3.3246   -4.6767 O   0  0  0  0  0  0  0  0  0  0  0  0
    6.2065   -1.1145   -4.8849 N   0  0  0  0  0  0  0  0  0  0  0  0
    4.9486   -0.5107   -5.3305 C   0  0  0  0  0  0  0  0  0  0  0  0
    3.6707   -1.0213   -4.6700 C   0  0  0  0  0  0  0  0  0  0  0  0
    0.9376    1.0209    0.7445 H   0  0  0  0  0  0  0  0  0  0  0  0
    2.6289   -0.3646    1.0232 H   0  0  0  0  0  0  0  0  0  0  0  0
    2.0522    0.4250   -2.8746 H   0  0  0  0  0  0  0  0  0  0  0  0
    7.2094   -3.7137   -2.0784 H   0  0  0  0  0  0  0  0  0  0  0  0
    6.4307   -3.6053    0.2676 H   0  0  0  0  0  0  0  0  0  0  0  0
    4.5544   -2.1226    0.9108 H   0  0  0  0  0  0  0  0  0  0  0  0
    6.7771   -0.4313   -4.4086 H   0  0  0  0  0  0  0  0  0  0  0  0
    4.8898   -0.6681   -6.4124 H   0  0  0  0  0  0  0  0  0  0  0  0
    5.0472    0.5689   -5.1637 H   0  0  0  0  0  0  0  0  0  0  0  0
    3.5153   -2.0831   -4.8826 H   0  0  0  0  0  0  0  0  0  0  0  0
    2.7955   -0.4751   -5.0453 H   0  0  0  0  0  0  0  0  0  0  0  0
  1  2  2  0  0  0  0
  1 17  1  0  0  0  0
  2  3  1  0  0  0  0
  2 18  1  0  0  0  0
  3  4  2  0  0  0  0
  3 11  1  0  0  0  0
  4  5  1  0  0  0  0
  4 19  1  0  0  0  0
  5  6  1  0  0  0  0
  5 16  1  0  0  0  0
  6  7  1  0  0  0  0
  6 11  2  0  0  0  0
  7  8  2  0  0  0  0
  7 12  1  0  0  0  0
  8  9  1  0  0  0  0
  8 20  1  0  0  0  0
  9 10  2  0  0  0  0
  9 21  1  0  0  0  0
 10 11  1  0  0  0  0
 10 22  1  0  0  0  0
 12 13  2  0  0  0  0
 12 14  1  0  0  0  0
 14 15  1  0  0  0  0
 14 23  1  0  0  0  0
 15 16  1  0  0  0  0
 15 24  1  0  0  0  0
 15 25  1  0  0  0  0
 16 26  1  0  0  0  0
 16 27  1  0  0  0  0
M  END
