
 OpenBabel09152623153D

 40 43  0  0  1  0  0  0  0  0999 V2000
    4.7394   -3.2600   -0.0596 C   0  0  0  0  0  0  0  0  0  0  0  0
    4.3897   -1.8923   -0.2323 O   0  0  0  0  0  0  0  0  0  0  0  0
    5.0724   -1.2736   -1.2508 C   0  0  0  0  0  0  0  0  0  0  0  0
    5.9387   -1.8031   -1.9273 O   0  0  0  0  0  0  0  0  0  0  0  0
    4.5657    0.1358   -1.3738 C   0  0  0  0  0  0  0  0  0  0  0  0
    5.1949    0.9484   -2.5216 C   0  0  3  0  0  0  0  0  0  0  0  0
    4.4427    2.3201   -2.4870 C   0  0  0  0  0  0  0  0  0  0  0  0
    4.9305    0.1745   -3.7989 N   0  0  0  0  0  0  0  0  0  0  0  0
    4.8736    0.9868   -4.9614 C   0  0  0  0  0  0  0  0  0  0  0  0
    3.6636    0.9433   -5.6651 C   0  0  0  0  0  0  0  0  0  0  0  0
    3.2562    2.0456   -6.4007 C   0  0  0  0  0  0  0  0  0  0  0  0
    4.0714    3.1713   -6.4404 C   0  0  0  0  0  0  0  0  0  0  0  0
    5.3768    3.1080   -5.9367 C   0  0  0  0  0  0  0  0  0  0  0  0
    5.8455    1.9635   -5.2709 C   0  0  0  0  0  0  0  0  0  0  0  0
    7.2381    1.8847   -4.7983 C   0  0  0  0  0  0  0  0  0  0  0  0
    8.3587    2.0401   -5.6251 C   0  0  0  0  0  0  0  0  0  0  0  0
    9.6359    1.9449   -5.0707 C   0  0  0  0  0  0  0  0  0  0  0  0
    9.9246    1.7502   -3.7573 N   0  0  0  0  0  0  0  0  0  0  0  0
    8.8161    1.5847   -3.0089 C   0  0  0  0  0  0  0  0  0  0  0  0
    8.8002    1.3589   -1.6596 N   0  0  0  0  0  0  0  0  0  0  0  0
    7.5055    1.1554   -1.2348 C   0  0  0  0  0  0  0  0  0  0  0  0
    6.6778    1.2231   -2.3398 C   0  0  0  0  0  0  0  0  0  0  0  0
    7.5049    1.5971   -3.4452 C   0  0  0  0  0  0  0  0  0  0  0  0
    4.2680   -3.6088    0.8628 H   0  0  0  0  0  0  0  0  0  0  0  0
    5.8221   -3.3842    0.0373 H   0  0  0  0  0  0  0  0  0  0  0  0
    4.3522   -3.8498   -0.8956 H   0  0  0  0  0  0  0  0  0  0  0  0
    4.7312    0.6365   -0.4125 H   0  0  0  0  0  0  0  0  0  0  0  0
    3.4815    0.0696   -1.5414 H   0  0  0  0  0  0  0  0  0  0  0  0
    3.4312    2.2451   -2.8998 H   0  0  0  0  0  0  0  0  0  0  0  0
    4.9718    3.1095   -3.0330 H   0  0  0  0  0  0  0  0  0  0  0  0
    4.3580    2.6979   -1.4610 H   0  0  0  0  0  0  0  0  0  0  0  0
    5.7234   -0.4704   -3.9027 H   0  0  0  0  0  0  0  0  0  0  0  0
    2.9997    0.0917   -5.5401 H   0  0  0  0  0  0  0  0  0  0  0  0
    2.2724    2.0525   -6.8598 H   0  0  0  0  0  0  0  0  0  0  0  0
    3.6906    4.0979   -6.8607 H   0  0  0  0  0  0  0  0  0  0  0  0
    6.0024    3.9967   -5.9889 H   0  0  0  0  0  0  0  0  0  0  0  0
    8.2402    2.1884   -6.6938 H   0  0  0  0  0  0  0  0  0  0  0  0
   10.5083    2.0202   -5.7176 H   0  0  0  0  0  0  0  0  0  0  0  0
    9.6321    1.3222   -1.0967 H   0  0  0  0  0  0  0  0  0  0  0  0
    7.3120    0.9357   -0.1951 H   0  0  0  0  0  0  0  0  0  0  0  0
  1  2  1  0  0  0  0
  1 24  1  0  0  0  0
  1 25  1  0  0  0  0
  1 26  1  0  0  0  0
  2  3  1  0  0  0  0
  3  4  2  0  0  0  0
  3  5  1  0  0  0  0
  5  6  1  0  0  0  0
  5 27  1  0  0  0  0
  5 28  1  0  0  0  0
  6  7  1  0  0  0  0
  6  8  1  0  0  0  0
  6 22  1  0  0  0  0
  7 29  1  0  0  0  0
  7 30  1  0  0  0  0
  7 31  1  0  0  0  0
  8  9  1  0  0  0  0
  8 32  1  0  0  0  0
  9 10  1  0  0  0  0
  9 14  2  0  0  0  0
 10 11  2  0  0  0  0
 10 33  1  0  0  0  0
 11 12  1  0  0  0  0
 11 34  1  0  0  0  0
 12 13  2  0  0  0  0
 12 35  1  0  0  0  0
 13 14  1  0  0  0  0
 13 36  1  0  0  0  0
 14 15  1  0  0  0  0
 15 16  1  0  0  0  0
 15 23  2  0  0  0  0
 16 17  2  0  0  0  0
 16 37  1  0  0  0  0
 17 18  1  0  0  0  0
 17 38  1  0  0  0  0
 18 19  2  0  0  0  0
 19 20  1  0  0  0  0
 19 23  1  0  0  0  0
 20 21  1  0  0  0  0
 20 39  1  0  0  0  0
 21 22  2  0  0  0  0
 21 40  1  0  0  0  0
 22 23  1  0  0  0  0
M  END
