
 OpenBabel09102615313D

 31 33  0  0  0  0  0  0  0  0999 V2000
    1.3148   -0.6371   -0.2327 C   0  0  0  0  0  0  0  0  0  0  0  0
    2.6371    0.0551    0.0772 C   0  0  0  0  0  0  0  0  0  0  0  0
    3.1059    0.8815   -1.0933 C   0  0  0  0  0  0  0  0  0  0  0  0
    2.7259    2.2227   -1.2209 C   0  0  0  0  0  0  0  0  0  0  0  0
    3.0574    2.9504   -2.3679 C   0  0  0  0  0  0  0  0  0  0  0  0
    3.7531    2.3252   -3.4141 C   0  0  0  0  0  0  0  0  0  0  0  0
    4.2062    1.0025   -3.2681 C   0  0  0  0  0  0  0  0  0  0  0  0
    3.8700    0.2912   -2.1099 C   0  0  0  0  0  0  0  0  0  0  0  0
    5.0375    0.3519   -4.3307 C   0  0  0  0  0  0  0  0  0  0  0  0
    4.2185    0.0957   -5.4756 N   0  0  0  0  0  0  0  0  0  0  0  0
    3.6763    1.0656   -6.2729 C   0  0  0  0  0  0  0  0  0  0  0  0
    3.0443    0.7164   -7.2682 O   0  0  0  0  0  0  0  0  0  0  0  0
    3.9140    2.4509   -5.9253 C   0  0  0  0  0  0  0  0  0  0  0  0
    4.0410    3.4912   -6.8354 C   0  0  0  0  0  0  0  0  0  0  0  0
    4.1952    4.6936   -6.1204 C   0  0  0  0  0  0  0  0  0  0  0  0
    4.0983    4.3795   -4.7854 C   0  0  0  0  0  0  0  0  0  0  0  0
    3.9348    3.0127   -4.6503 N   0  0  0  0  0  0  0  0  0  0  0  0
    1.0006   -1.2548    0.6143 H   0  0  0  0  0  0  0  0  0  0  0  0
    1.3995   -1.2862   -1.1115 H   0  0  0  0  0  0  0  0  0  0  0  0
    0.5226    0.0926   -0.4333 H   0  0  0  0  0  0  0  0  0  0  0  0
    3.3959   -0.6955    0.3266 H   0  0  0  0  0  0  0  0  0  0  0  0
    2.5263    0.6891    0.9641 H   0  0  0  0  0  0  0  0  0  0  0  0
    2.1280    2.6989   -0.4459 H   0  0  0  0  0  0  0  0  0  0  0  0
    2.6861    3.9686   -2.4583 H   0  0  0  0  0  0  0  0  0  0  0  0
    4.1779   -0.7480   -2.0049 H   0  0  0  0  0  0  0  0  0  0  0  0
    5.4582   -0.5998   -3.9911 H   0  0  0  0  0  0  0  0  0  0  0  0
    5.8802    0.9968   -4.6086 H   0  0  0  0  0  0  0  0  0  0  0  0
    4.0003   -0.8511   -5.7467 H   0  0  0  0  0  0  0  0  0  0  0  0
    4.0240    3.3697   -7.9123 H   0  0  0  0  0  0  0  0  0  0  0  0
    4.3454    5.6823   -6.5337 H   0  0  0  0  0  0  0  0  0  0  0  0
    4.1754    5.0189   -3.9168 H   0  0  0  0  0  0  0  0  0  0  0  0
  1  2  1  0  0  0  0
  1 18  1  0  0  0  0
  1 19  1  0  0  0  0
  1 20  1  0  0  0  0
  2  3  1  0  0  0  0
  2 21  1  0  0  0  0
  2 22  1  0  0  0  0
  3  4  1  0  0  0  0
  3  8  2  0  0  0  0
  4  5  2  0  0  0  0
  4 23  1  0  0  0  0
  5  6  1  0  0  0  0
  5 24  1  0  0  0  0
  6  7  2  0  0  0  0
  6 17  1  0  0  0  0
  7  8  1  0  0  0  0
  7  9  1  0  0  0  0
  8 25  1  0  0  0  0
  9 10  1  0  0  0  0
  9 26  1  0  0  0  0
  9 27  1  0  0  0  0
 10 11  1  0  0  0  0
 10 28  1  0  0  0  0
 11 12  2  0  0  0  0
 11 13  1  0  0  0  0
 13 14  2  0  0  0  0
 13 17  1  0  0  0  0
 14 15  1  0  0  0  0
 14 29  1  0  0  0  0
 15 16  2  0  0  0  0
 15 30  1  0  0  0  0
 16 17  1  0  0  0  0
 16 31  1  0  0  0  0
M  END
