
 OpenBabel09102615313D

 41 44  0  0  0  0  0  0  0  0999 V2000
    1.4851   -0.9177    0.5584 O   0  0  0  0  0  0  0  0  0  0  0  0
    2.4803   -0.3213    0.1518 C   0  0  0  0  0  0  0  0  0  0  0  0
    2.9600    0.7245    0.8896 N   0  0  0  0  0  0  0  0  0  0  0  0
    4.1412    1.4684    0.5727 C   0  0  0  0  0  0  0  0  0  0  0  0
    3.9191    2.2417   -0.6906 C   0  0  0  0  0  0  0  0  0  0  0  0
    3.8103    3.6409   -0.6479 C   0  0  0  0  0  0  0  0  0  0  0  0
    3.6061    4.3925   -1.8165 C   0  0  0  0  0  0  0  0  0  0  0  0
    3.4478    5.8931   -1.6983 C   0  0  0  0  0  0  0  0  0  0  0  0
    2.5088    6.5339   -2.7287 C   0  0  0  0  0  0  0  0  0  0  0  0
    2.3636    8.0192   -2.5027 C   0  0  0  0  0  0  0  0  0  0  0  0
    3.2473    8.9162   -3.1178 C   0  0  0  0  0  0  0  0  0  0  0  0
    3.1286   10.2885   -2.8963 C   0  0  0  0  0  0  0  0  0  0  0  0
    2.1301   10.7759   -2.0553 C   0  0  0  0  0  0  0  0  0  0  0  0
    1.2479    9.8912   -1.4368 C   0  0  0  0  0  0  0  0  0  0  0  0
    1.3642    8.5177   -1.6574 C   0  0  0  0  0  0  0  0  0  0  0  0
    3.5984    3.7229   -3.0444 C   0  0  0  0  0  0  0  0  0  0  0  0
    3.7040    2.3291   -3.1040 C   0  0  0  0  0  0  0  0  0  0  0  0
    3.8170    1.5849   -1.9256 C   0  0  0  0  0  0  0  0  0  0  0  0
    3.7790    0.1612   -1.9821 N   0  0  0  0  0  0  0  0  0  0  0  0
    4.2678   -0.6077   -3.0241 C   0  0  0  0  0  0  0  0  0  0  0  0
    4.0230   -1.9351   -2.7614 C   0  0  0  0  0  0  0  0  0  0  0  0
    3.3180   -1.9853   -1.5428 C   0  0  0  0  0  0  0  0  0  0  0  0
    3.1971   -0.6936   -1.0493 C   0  0  0  0  0  0  0  0  0  0  0  0
    2.4063    0.9627    1.7009 H   0  0  0  0  0  0  0  0  0  0  0  0
    4.9935    0.7852    0.4632 H   0  0  0  0  0  0  0  0  0  0  0  0
    4.3670    2.1252    1.4217 H   0  0  0  0  0  0  0  0  0  0  0  0
    3.8703    4.1521    0.3126 H   0  0  0  0  0  0  0  0  0  0  0  0
    4.4441    6.3467   -1.7553 H   0  0  0  0  0  0  0  0  0  0  0  0
    3.0568    6.1228   -0.6957 H   0  0  0  0  0  0  0  0  0  0  0  0
    1.5197    6.0589   -2.6931 H   0  0  0  0  0  0  0  0  0  0  0  0
    2.8808    6.3755   -3.7480 H   0  0  0  0  0  0  0  0  0  0  0  0
    4.0330    8.5504   -3.7751 H   0  0  0  0  0  0  0  0  0  0  0  0
    3.8161   10.9772   -3.3803 H   0  0  0  0  0  0  0  0  0  0  0  0
    2.0390   11.8446   -1.8827 H   0  0  0  0  0  0  0  0  0  0  0  0
    0.4679   10.2705   -0.7816 H   0  0  0  0  0  0  0  0  0  0  0  0
    0.6696    7.8399   -1.1664 H   0  0  0  0  0  0  0  0  0  0  0  0
    3.4791    4.2659   -3.9787 H   0  0  0  0  0  0  0  0  0  0  0  0
    3.6209    1.8489   -4.0755 H   0  0  0  0  0  0  0  0  0  0  0  0
    4.7947   -0.1520   -3.8506 H   0  0  0  0  0  0  0  0  0  0  0  0
    4.3108   -2.7710   -3.3823 H   0  0  0  0  0  0  0  0  0  0  0  0
    2.9278   -2.8688   -1.0515 H   0  0  0  0  0  0  0  0  0  0  0  0
  1  2  2  0  0  0  0
  2  3  1  0  0  0  0
  2 23  1  0  0  0  0
  3  4  1  0  0  0  0
  3 24  1  0  0  0  0
  4  5  1  0  0  0  0
  4 25  1  0  0  0  0
  4 26  1  0  0  0  0
  5  6  1  0  0  0  0
  5 18  2  0  0  0  0
  6  7  2  0  0  0  0
  6 27  1  0  0  0  0
  7  8  1  0  0  0  0
  7 16  1  0  0  0  0
  8  9  1  0  0  0  0
  8 28  1  0  0  0  0
  8 29  1  0  0  0  0
  9 10  1  0  0  0  0
  9 30  1  0  0  0  0
  9 31  1  0  0  0  0
 10 11  1  0  0  0  0
 10 15  2  0  0  0  0
 11 12  2  0  0  0  0
 11 32  1  0  0  0  0
 12 13  1  0  0  0  0
 12 33  1  0  0  0  0
 13 14  2  0  0  0  0
 13 34  1  0  0  0  0
 14 15  1  0  0  0  0
 14 35  1  0  0  0  0
 15 36  1  0  0  0  0
 16 17  2  0  0  0  0
 16 37  1  0  0  0  0
 17 18  1  0  0  0  0
 17 38  1  0  0  0  0
 18 19  1  0  0  0  0
 19 20  1  0  0  0  0
 19 23  1  0  0  0  0
 20 21  2  0  0  0  0
 20 39  1  0  0  0  0
 21 22  1  0  0  0  0
 21 40  1  0  0  0  0
 22 23  2  0  0  0  0
 22 41  1  0  0  0  0
M  END
