
 OpenBabel09162600503D

 65 68  0  0  1  0  0  0  0  0999 V2000
    2.2910   -2.9640   -2.7811 N   0  0  0  0  0  0  0  0  0  0  0  0
    2.0383   -1.5965   -2.2642 C   0  0  3  0  0  0  0  0  0  0  0  0
    0.5824   -1.5099   -1.7321 C   0  0  0  0  0  0  0  0  0  0  0  0
   -0.5237   -1.7750   -2.7500 C   0  0  0  0  0  0  0  0  0  0  0  0
   -1.6769   -2.4768   -2.3582 C   0  0  0  0  0  0  0  0  0  0  0  0
   -2.7370   -2.6799   -3.2506 C   0  0  0  0  0  0  0  0  0  0  0  0
   -2.6612   -2.1828   -4.5484 C   0  0  0  0  0  0  0  0  0  0  0  0
   -1.5219   -1.4922   -4.9548 C   0  0  0  0  0  0  0  0  0  0  0  0
   -0.4662   -1.2855   -4.0646 C   0  0  0  0  0  0  0  0  0  0  0  0
    3.1013   -1.2830   -1.1659 C   0  0  0  0  0  0  0  0  0  0  0  0
    2.7577   -1.1404    0.0120 O   0  0  0  0  0  0  0  0  0  0  0  0
    4.4631   -1.2079   -1.5448 N   0  0  0  0  0  0  0  0  0  0  0  0
    4.9369   -1.3634   -2.9151 C   0  0  0  0  0  0  0  0  0  0  0  0
    5.4558   -2.7707   -3.1807 C   0  0  0  0  0  0  0  0  0  0  0  0
    6.3592   -3.3211   -2.0834 C   0  0  0  0  0  0  0  0  0  0  0  0
    6.0123   -2.8750   -0.6581 C   0  0  0  0  0  0  0  0  0  0  0  0
    5.4974   -1.4317   -0.5140 C   0  0  3  0  0  0  0  0  0  0  0  0
    6.5649   -0.2900   -0.2941 C   0  0  3  0  0  0  0  0  0  0  0  0
    5.8433    1.0440   -0.0267 C   0  0  0  0  0  0  0  0  0  0  0  0
    6.8894    2.1130   -0.2698 C   0  0  0  0  0  0  0  0  0  0  0  0
    7.8355    1.5022   -1.2842 C   0  0  0  0  0  0  0  0  0  0  0  0
    7.5674    0.0690   -1.3164 N   0  0  0  0  0  0  0  0  0  0  0  0
    8.6407   -0.7747   -1.6151 C   0  0  0  0  0  0  0  0  0  0  0  0
    8.7749   -1.8726   -1.0762 O   0  0  0  0  0  0  0  0  0  0  0  0
    9.6558   -0.2432   -2.6638 C   0  0  0  0  0  0  0  0  0  0  0  0
   10.7309   -1.1932   -2.8712 N   0  0  0  0  0  0  0  0  0  0  0  0
   10.8137   -2.0905   -3.9900 C   0  0  0  0  0  0  0  0  0  0  0  0
   11.6101   -3.2539   -3.4333 C   0  0  0  0  0  0  0  0  0  0  0  0
   12.5091   -2.6187   -2.3745 C   0  0  0  0  0  0  0  0  0  0  0  0
   11.7033   -1.4311   -1.9141 C   0  0  0  0  0  0  0  0  0  0  0  0
   11.8945   -0.7830   -0.8989 O   0  0  0  0  0  0  0  0  0  0  0  0
    1.5030   -3.2549   -3.3576 H   0  0  0  0  0  0  0  0  0  0  0  0
    2.3022   -3.6079   -1.9884 H   0  0  0  0  0  0  0  0  0  0  0  0
    2.1612   -0.8605   -3.0637 H   0  0  0  0  0  0  0  0  0  0  0  0
    0.4025   -0.5139   -1.3091 H   0  0  0  0  0  0  0  0  0  0  0  0
    0.4695   -2.2203   -0.9004 H   0  0  0  0  0  0  0  0  0  0  0  0
   -1.7654   -2.8687   -1.3464 H   0  0  0  0  0  0  0  0  0  0  0  0
   -3.6237   -3.2185   -2.9271 H   0  0  0  0  0  0  0  0  0  0  0  0
   -3.4877   -2.3297   -5.2386 H   0  0  0  0  0  0  0  0  0  0  0  0
   -1.4619   -1.1042   -5.9709 H   0  0  0  0  0  0  0  0  0  0  0  0
    0.3987   -0.7312   -4.4185 H   0  0  0  0  0  0  0  0  0  0  0  0
    5.7296   -0.6297   -3.0723 H   0  0  0  0  0  0  0  0  0  0  0  0
    4.1549   -1.1121   -3.6359 H   0  0  0  0  0  0  0  0  0  0  0  0
    5.9978   -2.7750   -4.1340 H   0  0  0  0  0  0  0  0  0  0  0  0
    4.6281   -3.4704   -3.3136 H   0  0  0  0  0  0  0  0  0  0  0  0
    7.3842   -3.0618   -2.3419 H   0  0  0  0  0  0  0  0  0  0  0  0
    6.3366   -4.4180   -2.1201 H   0  0  0  0  0  0  0  0  0  0  0  0
    6.8491   -3.0631    0.0230 H   0  0  0  0  0  0  0  0  0  0  0  0
    5.2067   -3.5403   -0.3125 H   0  0  0  0  0  0  0  0  0  0  0  0
    4.9770   -1.4427    0.4573 H   0  0  0  0  0  0  0  0  0  0  0  0
    7.1473   -0.5570    0.5999 H   0  0  0  0  0  0  0  0  0  0  0  0
    5.4410    1.0940    0.9902 H   0  0  0  0  0  0  0  0  0  0  0  0
    5.0149    1.2023   -0.7255 H   0  0  0  0  0  0  0  0  0  0  0  0
    7.4269    2.3399    0.6584 H   0  0  0  0  0  0  0  0  0  0  0  0
    6.4563    3.0493   -0.6352 H   0  0  0  0  0  0  0  0  0  0  0  0
    8.8638    1.6872   -0.9516 H   0  0  0  0  0  0  0  0  0  0  0  0
    7.7106    1.9115   -2.2905 H   0  0  0  0  0  0  0  0  0  0  0  0
   10.1174    0.6776   -2.2999 H   0  0  0  0  0  0  0  0  0  0  0  0
    9.1509   -0.0499   -3.6159 H   0  0  0  0  0  0  0  0  0  0  0  0
   11.3553   -1.5796   -4.7946 H   0  0  0  0  0  0  0  0  0  0  0  0
    9.8224   -2.3877   -4.3411 H   0  0  0  0  0  0  0  0  0  0  0  0
   12.1725   -3.7947   -4.1995 H   0  0  0  0  0  0  0  0  0  0  0  0
   10.9258   -3.9649   -2.9531 H   0  0  0  0  0  0  0  0  0  0  0  0
   13.4524   -2.2645   -2.7983 H   0  0  0  0  0  0  0  0  0  0  0  0
   12.6943   -3.3064   -1.5456 H   0  0  0  0  0  0  0  0  0  0  0  0
  1  2  1  0  0  0  0
  1 32  1  0  0  0  0
  1 33  1  0  0  0  0
  2  3  1  0  0  0  0
  2 10  1  0  0  0  0
  2 34  1  0  0  0  0
  3  4  1  0  0  0  0
  3 35  1  0  0  0  0
  3 36  1  0  0  0  0
  4  5  1  0  0  0  0
  4  9  2  0  0  0  0
  5  6  2  0  0  0  0
  5 37  1  0  0  0  0
  6  7  1  0  0  0  0
  6 38  1  0  0  0  0
  7  8  2  0  0  0  0
  7 39  1  0  0  0  0
  8  9  1  0  0  0  0
  8 40  1  0  0  0  0
  9 41  1  0  0  0  0
 10 11  2  0  0  0  0
 10 12  1  0  0  0  0
 12 13  1  0  0  0  0
 12 17  1  0  0  0  0
 13 14  1  0  0  0  0
 13 42  1  0  0  0  0
 13 43  1  0  0  0  0
 14 15  1  0  0  0  0
 14 44  1  0  0  0  0
 14 45  1  0  0  0  0
 15 16  1  0  0  0  0
 15 46  1  0  0  0  0
 15 47  1  0  0  0  0
 16 17  1  0  0  0  0
 16 48  1  0  0  0  0
 16 49  1  0  0  0  0
 17 18  1  0  0  0  0
 17 50  1  0  0  0  0
 18 19  1  0  0  0  0
 18 22  1  0  0  0  0
 18 51  1  0  0  0  0
 19 20  1  0  0  0  0
 19 52  1  0  0  0  0
 19 53  1  0  0  0  0
 20 21  1  0  0  0  0
 20 54  1  0  0  0  0
 20 55  1  0  0  0  0
 21 22  1  0  0  0  0
 21 56  1  0  0  0  0
 21 57  1  0  0  0  0
 22 23  1  0  0  0  0
 23 24  2  0  0  0  0
 23 25  1  0  0  0  0
 25 26  1  0  0  0  0
 25 58  1  0  0  0  0
 25 59  1  0  0  0  0
 26 27  1  0  0  0  0
 26 30  1  0  0  0  0
 27 28  1  0  0  0  0
 27 60  1  0  0  0  0
 27 61  1  0  0  0  0
 28 29  1  0  0  0  0
 28 62  1  0  0  0  0
 28 63  1  0  0  0  0
 29 30  1  0  0  0  0
 29 64  1  0  0  0  0
 29 65  1  0  0  0  0
 30 31  2  0  0  0  0
M  END
