
 OpenBabel09102615313D

 50 54  0  0  0  0  0  0  0  0999 V2000
    2.1080    0.8516   -0.9686 O   0  0  0  0  0  0  0  0  0  0  0  0
    1.4880    0.6715    0.0725 C   0  0  0  0  0  0  0  0  0  0  0  0
    2.1791    0.5882    1.4145 C   0  0  0  0  0  0  0  0  0  0  0  0
    1.3002    1.1764    2.5055 C   0  0  0  0  0  0  0  0  0  0  0  0
   -0.0225    0.4199    2.5935 C   0  0  0  0  0  0  0  0  0  0  0  0
   -0.6963    0.2996    1.2521 C   0  0  0  0  0  0  0  0  0  0  0  0
   -2.0621   -0.0199    1.1981 C   0  0  0  0  0  0  0  0  0  0  0  0
   -2.7200   -0.1895   -0.0300 C   0  0  0  0  0  0  0  0  0  0  0  0
   -4.1775   -0.5939   -0.0571 C   0  0  0  0  0  0  0  0  0  0  0  0
   -5.1277    0.6077   -0.0006 C   0  0  0  0  0  0  0  0  0  0  0  0
   -6.5786    0.1816   -0.0390 C   0  0  0  0  0  0  0  0  0  0  0  0
   -7.3103   -0.0318    1.1379 C   0  0  0  0  0  0  0  0  0  0  0  0
   -8.6357   -0.4824    1.0847 C   0  0  0  0  0  0  0  0  0  0  0  0
   -9.2258   -0.7579   -0.1546 C   0  0  0  0  0  0  0  0  0  0  0  0
   -8.5227   -0.4962   -1.3445 C   0  0  0  0  0  0  0  0  0  0  0  0
   -7.2013   -0.0387   -1.2745 C   0  0  0  0  0  0  0  0  0  0  0  0
   -9.1721   -0.7143   -2.6815 C   0  0  0  0  0  0  0  0  0  0  0  0
   -9.3140   -2.1230   -2.9069 N   0  0  0  0  0  0  0  0  0  0  0  0
  -10.1092   -2.9472   -2.1573 C   0  0  0  0  0  0  0  0  0  0  0  0
  -10.1289   -4.1477   -2.4164 O   0  0  0  0  0  0  0  0  0  0  0  0
  -10.9184   -2.3364   -1.1266 C   0  0  0  0  0  0  0  0  0  0  0  0
  -12.2207   -2.6873   -0.8057 C   0  0  0  0  0  0  0  0  0  0  0  0
  -12.6447   -1.8762    0.2663 C   0  0  0  0  0  0  0  0  0  0  0  0
  -11.5663   -1.1054    0.6380 C   0  0  0  0  0  0  0  0  0  0  0  0
  -10.5124   -1.3643   -0.2171 N   0  0  0  0  0  0  0  0  0  0  0  0
   -2.0001   -0.0018   -1.2125 C   0  0  0  0  0  0  0  0  0  0  0  0
   -0.6402    0.3080   -1.1787 C   0  0  0  0  0  0  0  0  0  0  0  0
    0.0119    0.4340    0.0509 C   0  0  0  0  0  0  0  0  0  0  0  0
    3.1173    1.1511    1.3602 H   0  0  0  0  0  0  0  0  0  0  0  0
    2.4170   -0.4605    1.6167 H   0  0  0  0  0  0  0  0  0  0  0  0
    1.1059    2.2355    2.2902 H   0  0  0  0  0  0  0  0  0  0  0  0
    1.8164    1.1322    3.4709 H   0  0  0  0  0  0  0  0  0  0  0  0
   -0.6795    0.9467    3.2934 H   0  0  0  0  0  0  0  0  0  0  0  0
    0.1512   -0.5862    2.9880 H   0  0  0  0  0  0  0  0  0  0  0  0
   -2.6167   -0.1600    2.1254 H   0  0  0  0  0  0  0  0  0  0  0  0
   -4.3729   -1.2704    0.7858 H   0  0  0  0  0  0  0  0  0  0  0  0
   -4.3656   -1.1935   -0.9577 H   0  0  0  0  0  0  0  0  0  0  0  0
   -4.9321    1.2808   -0.8460 H   0  0  0  0  0  0  0  0  0  0  0  0
   -4.9446    1.2033    0.9018 H   0  0  0  0  0  0  0  0  0  0  0  0
   -6.8433    0.1243    2.1081 H   0  0  0  0  0  0  0  0  0  0  0  0
   -9.1558   -0.6870    2.0179 H   0  0  0  0  0  0  0  0  0  0  0  0
   -6.6429    0.1335   -2.1915 H   0  0  0  0  0  0  0  0  0  0  0  0
   -8.5764   -0.2944   -3.4977 H   0  0  0  0  0  0  0  0  0  0  0  0
  -10.1552   -0.2280   -2.7182 H   0  0  0  0  0  0  0  0  0  0  0  0
   -8.7451   -2.5902   -3.5986 H   0  0  0  0  0  0  0  0  0  0  0  0
  -12.8003   -3.4434   -1.3241 H   0  0  0  0  0  0  0  0  0  0  0  0
  -13.6254   -1.8655    0.7233 H   0  0  0  0  0  0  0  0  0  0  0  0
  -11.4855   -0.3498    1.4075 H   0  0  0  0  0  0  0  0  0  0  0  0
   -2.4879   -0.1187   -2.1830 H   0  0  0  0  0  0  0  0  0  0  0  0
   -0.0863    0.4246   -2.1083 H   0  0  0  0  0  0  0  0  0  0  0  0
  1  2  2  0  0  0  0
  2  3  1  0  0  0  0
  2 28  1  0  0  0  0
  3  4  1  0  0  0  0
  3 29  1  0  0  0  0
  3 30  1  0  0  0  0
  4  5  1  0  0  0  0
  4 31  1  0  0  0  0
  4 32  1  0  0  0  0
  5  6  1  0  0  0  0
  5 33  1  0  0  0  0
  5 34  1  0  0  0  0
  6  7  1  0  0  0  0
  6 28  2  0  0  0  0
  7  8  2  0  0  0  0
  7 35  1  0  0  0  0
  8  9  1  0  0  0  0
  8 26  1  0  0  0  0
  9 10  1  0  0  0  0
  9 36  1  0  0  0  0
  9 37  1  0  0  0  0
 10 11  1  0  0  0  0
 10 38  1  0  0  0  0
 10 39  1  0  0  0  0
 11 12  1  0  0  0  0
 11 16  2  0  0  0  0
 12 13  2  0  0  0  0
 12 40  1  0  0  0  0
 13 14  1  0  0  0  0
 13 41  1  0  0  0  0
 14 15  2  0  0  0  0
 14 25  1  0  0  0  0
 15 16  1  0  0  0  0
 15 17  1  0  0  0  0
 16 42  1  0  0  0  0
 17 18  1  0  0  0  0
 17 43  1  0  0  0  0
 17 44  1  0  0  0  0
 18 19  1  0  0  0  0
 18 45  1  0  0  0  0
 19 20  2  0  0  0  0
 19 21  1  0  0  0  0
 21 22  2  0  0  0  0
 21 25  1  0  0  0  0
 22 23  1  0  0  0  0
 22 46  1  0  0  0  0
 23 24  2  0  0  0  0
 23 47  1  0  0  0  0
 24 25  1  0  0  0  0
 24 48  1  0  0  0  0
 26 27  2  0  0  0  0
 26 49  1  0  0  0  0
 27 28  1  0  0  0  0
 27 50  1  0  0  0  0
M  END
